     30 'GENCLS' 1     42.000       0.0000      /
     31 'GENCLS' 1     30.300       0.0000      /
     32 'GENCLS' 1     35.800       0.0000      /
     33 'GENCLS' 1     28.600       0.0000      /
     34 'GENCLS' 1     26.000       0.0000      /
     35 'GENCLS' 1     34.800       0.0000      /
     36 'GENCLS' 1     26.400       0.0000      /
     37 'GENCLS' 1     24.300       0.0000      /
     38 'GENCLS' 1     34.500       0.0000      /
     39 'GENCLS' 1     500.00       0.0000      /
