      1 'GENCLS' 1     23.640      0.26000E-01  /
      2 'GENCLS' 1     6.4000      0.10000E-01  /
      3 'GENCLS' 1     3.0100      0.50000E-02  /
